<routes>
    <vType id="a" vClass="passenger" accel="3.0" length="3" minGap="1" color="1,0,0" maxSpeed="28" speedFactor="1.1" speedDev="0.1" sigma="0.0" />
    <vType id="p" vClass="passenger" accel="3.0" length="3" minGap="1" color="gray" maxSpeed="28" speedFactor="1.1" speedDev="0.1" sigma="0.0" />
    <vType id="p1" vClass="passenger" accel="3.0" length="3" minGap="1" color="1,1,1" maxSpeed="28" speedFactor="1.1" speedDev="0.1" sigma="0.0" />
    <vType id="p2" vClass="passenger" accel="3.0" length="3" minGap="1" color="0,1,0" maxSpeed="28" speedFactor="1.1" speedDev="0.1" sigma="0.0" />
    <vType id="p3" vClass="passenger" accel="3.0" length="3" minGap="1" color="0,0,1" maxSpeed="28" speedFactor="1.1" speedDev="0.1" sigma="0.0" />
    <vType id="p4" vClass="passenger" accel="3.0" length="3" minGap="1" color="orange" maxSpeed="28" speedFactor="1.1" speedDev="0.1" sigma="0.0" />
    <vType id="p5" vClass="passenger" accel="3.0" length="3" minGap="1" color="yellow" maxSpeed="28" speedFactor="1.1" speedDev="0.1" sigma="0.0" />


    <flow id="A1E0" from="a1" to="e0" type="p" begin="1" end="3600" number="25" departPos="last" departLane="best" departSpeed="3.9" arrivalPos="random" arrivalLane="current"/>
    <flow id="A1I0" from="a1" to="i0" type="p" begin="1" end="3600" number="25" departPos="last" departLane="best" departSpeed="3.9" arrivalPos="random" arrivalLane="current"/>
    <flow id="A1D1" from="a1" to="d1" type="p" begin="1" end="3600" number="25" departPos="last" departLane="best" departSpeed="3.9" arrivalPos="random" arrivalLane="current"/>
    <flow id="A1H1" from="a1" to="h1" type="p" begin="1" end="3600" number="25" departPos="last" departLane="best" departSpeed="3.9" arrivalPos="random" arrivalLane="current"/>
    <flow id="A1L1" from="a1" to="l1" type="p" begin="1" end="3600" number="25" departPos="last" departLane="best" departSpeed="3.9" arrivalPos="random" arrivalLane="current"/>
    <flow id="A1M0" from="a1" to="m0" type="p" begin="1" end="3600" number="25" departPos="last" departLane="best" departSpeed="3.9" arrivalPos="random" arrivalLane="current"/>
    <flow id="A1N0" from="a1" to="n0" type="p" begin="1" end="3600" number="25" departPos="last" departLane="best" departSpeed="3.9" arrivalPos="random" arrivalLane="current"/>
    <flow id="A1O0" from="a1" to="o0" type="p" begin="1" end="3600" number="25" departPos="last" departLane="best" departSpeed="3.9" arrivalPos="random" arrivalLane="current"/>
    <flow id="A1V1" from="a1" to="v1" type="p" begin="1" end="3600" number="25" departPos="last" departLane="best" departSpeed="3.9" arrivalPos="random" arrivalLane="current"/>
    <flow id="A1W1" from="a1" to="w1" type="p" begin="1" end="3600" number="25" departPos="last" departLane="best" departSpeed="3.9" arrivalPos="random" arrivalLane="current"/>
    <flow id="A1X1" from="a1" to="x1" type="p" begin="1" end="3600" number="25" departPos="last" departLane="best" departSpeed="3.9" arrivalPos="random" arrivalLane="current"/>
    <flow id="E1A0" from="e1" to="a0" type="p" begin="1" end="3600" number="25" departPos="last" departLane="best" departSpeed="3.9" arrivalPos="random" arrivalLane="current"/>
    <flow id="E1I0" from="e1" to="i0" type="p" begin="1" end="3600" number="25" departPos="last" departLane="best" departSpeed="3.9" arrivalPos="random" arrivalLane="current"/>
    <flow id="E1D1" from="e1" to="d1" type="p" begin="1" end="3600" number="25" departPos="last" departLane="best" departSpeed="3.9" arrivalPos="random" arrivalLane="current"/>
    <flow id="E1H1" from="e1" to="h1" type="p1" begin="1" end="3600" number="300" departPos="last" departLane="best" departSpeed="3.9" arrivalPos="random" arrivalLane="current"/>
    <flow id="E1L1" from="e1" to="l1" type="p" begin="1" end="3600" number="25" departPos="last" departLane="best" departSpeed="3.9" arrivalPos="random" arrivalLane="current"/>
    <flow id="E1M0" from="e1" to="m0" type="p" begin="1" end="3600" number="25" departPos="last" departLane="best" departSpeed="3.9" arrivalPos="random" arrivalLane="current"/>
    <flow id="E1N0" from="e1" to="n0" type="p" begin="1" end="3600" number="25" departPos="last" departLane="best" departSpeed="3.9" arrivalPos="random" arrivalLane="current"/>
    <flow id="E1O0" from="e1" to="o0" type="p" begin="1" end="3600" number="25" departPos="last" departLane="best" departSpeed="3.9" arrivalPos="random" arrivalLane="current"/>
    <flow id="E1V1" from="e1" to="v1" type="p" begin="1" end="3600" number="25" departPos="last" departLane="best" departSpeed="3.9" arrivalPos="random" arrivalLane="current"/>
    <flow id="E1W1" from="e1" to="w1" type="p" begin="1" end="3600" number="25" departPos="last" departLane="best" departSpeed="3.9" arrivalPos="random" arrivalLane="current"/>
    <flow id="E1X1" from="e1" to="x1" type="p" begin="1" end="3600" number="25" departPos="last" departLane="best" departSpeed="3.9" arrivalPos="random" arrivalLane="current"/>
    <flow id="I1A0" from="i1" to="a0" type="p" begin="1" end="3600" number="25" departPos="last" departLane="best" departSpeed="3.9" arrivalPos="random" arrivalLane="current"/>
    <flow id="I1E0" from="i1" to="e0" type="p" begin="1" end="3600" number="25" departPos="last" departLane="best" departSpeed="3.9" arrivalPos="random" arrivalLane="current"/>
    <flow id="I1D1" from="i1" to="d1" type="p" begin="1" end="3600" number="25" departPos="last" departLane="best" departSpeed="3.9" arrivalPos="random" arrivalLane="current"/>
    <flow id="I1H1" from="i1" to="h1" type="p" begin="1" end="3600" number="25" departPos="last" departLane="best" departSpeed="3.9" arrivalPos="random" arrivalLane="current"/>
    <flow id="I1L1" from="i1" to="l1" type="p3" begin="1" end="3600" number="1000" departPos="last" departLane="best" departSpeed="3.9" arrivalPos="random" arrivalLane="current"/>
    <flow id="I1M0" from="i1" to="m0" type="p" begin="1" end="3600" number="25" departPos="last" departLane="best" departSpeed="3.9" arrivalPos="random" arrivalLane="current"/>
    <flow id="I1N0" from="i1" to="n0" type="p" begin="1" end="3600" number="25" departPos="last" departLane="best" departSpeed="3.9" arrivalPos="random" arrivalLane="current"/>
    <flow id="I1O0" from="i1" to="o0" type="p" begin="1" end="3600" number="25" departPos="last" departLane="best" departSpeed="3.9" arrivalPos="random" arrivalLane="current"/>
    <flow id="I1V1" from="i1" to="v1" type="p" begin="1" end="3600" number="25" departPos="last" departLane="best" departSpeed="3.9" arrivalPos="random" arrivalLane="current"/>
    <flow id="I1W1" from="i1" to="w1" type="p" begin="1" end="3600" number="25" departPos="last" departLane="best" departSpeed="3.9" arrivalPos="random" arrivalLane="current"/>
    <flow id="I1X1" from="i1" to="x1" type="p" begin="1" end="3600" number="25" departPos="last" departLane="best" departSpeed="3.9" arrivalPos="random" arrivalLane="current"/>
    <flow id="D0A0" from="d0" to="a0" type="p" begin="1" end="3600" number="25" departPos="last" departLane="best" departSpeed="3.9" arrivalPos="random" arrivalLane="current"/>
    <flow id="D0E0" from="d0" to="e0" type="p" begin="1" end="3600" number="25" departPos="last" departLane="best" departSpeed="3.9" arrivalPos="random" arrivalLane="current"/>
    <flow id="D0I0" from="d0" to="i0" type="p" begin="1" end="3600" number="25" departPos="last" departLane="best" departSpeed="3.9" arrivalPos="random" arrivalLane="current"/>
    <flow id="D0H1" from="d0" to="h1" type="p" begin="1" end="3600" number="25" departPos="last" departLane="best" departSpeed="3.9" arrivalPos="random" arrivalLane="current"/>
    <flow id="D0L1" from="d0" to="l1" type="p" begin="1" end="3600" number="25" departPos="last" departLane="best" departSpeed="3.9" arrivalPos="random" arrivalLane="current"/>
    <flow id="D0M0" from="d0" to="m0" type="p" begin="1" end="3600" number="25" departPos="last" departLane="best" departSpeed="3.9" arrivalPos="random" arrivalLane="current"/>
    <flow id="D0N0" from="d0" to="n0" type="p" begin="1" end="3600" number="25" departPos="last" departLane="best" departSpeed="3.9" arrivalPos="random" arrivalLane="current"/>
    <flow id="D0O0" from="d0" to="o0" type="p" begin="1" end="3600" number="25" departPos="last" departLane="best" departSpeed="3.9" arrivalPos="random" arrivalLane="current"/>
    <flow id="D0V1" from="d0" to="v1" type="p" begin="1" end="3600" number="25" departPos="last" departLane="best" departSpeed="3.9" arrivalPos="random" arrivalLane="current"/>
    <flow id="D0W1" from="d0" to="w1" type="p" begin="1" end="3600" number="25" departPos="last" departLane="best" departSpeed="3.9" arrivalPos="random" arrivalLane="current"/>
    <flow id="D0X1" from="d0" to="x1" type="p" begin="1" end="3600" number="25" departPos="last" departLane="best" departSpeed="3.9" arrivalPos="random" arrivalLane="current"/>
    <flow id="H0A0" from="h0" to="a0" type="p" begin="1" end="3600" number="25" departPos="last" departLane="best" departSpeed="3.9" arrivalPos="random" arrivalLane="current"/>
    <flow id="H0E0" from="h0" to="e0" type="p2" begin="1" end="3600" number="300" departPos="last" departLane="best" departSpeed="3.9" arrivalPos="random" arrivalLane="current"/>
    <flow id="H0I0" from="h0" to="i0" type="p" begin="1" end="3600" number="25" departPos="last" departLane="best" departSpeed="3.9" arrivalPos="random" arrivalLane="current"/>
    <flow id="H0D1" from="h0" to="d1" type="p" begin="1" end="3600" number="25" departPos="last" departLane="best" departSpeed="3.9" arrivalPos="random" arrivalLane="current"/>
    <flow id="H0L1" from="h0" to="l1" type="p" begin="1" end="3600" number="25" departPos="last" departLane="best" departSpeed="3.9" arrivalPos="random" arrivalLane="current"/>
    <flow id="H0M0" from="h0" to="m0" type="p" begin="1" end="3600" number="25" departPos="last" departLane="best" departSpeed="3.9" arrivalPos="random" arrivalLane="current"/>
    <flow id="H0N0" from="h0" to="n0" type="p" begin="1" end="3600" number="25" departPos="last" departLane="best" departSpeed="3.9" arrivalPos="random" arrivalLane="current"/>
    <flow id="H0O0" from="h0" to="o0" type="p" begin="1" end="3600" number="25" departPos="last" departLane="best" departSpeed="3.9" arrivalPos="random" arrivalLane="current"/>
    <flow id="H0V1" from="h0" to="v1" type="p" begin="1" end="3600" number="25" departPos="last" departLane="best" departSpeed="3.9" arrivalPos="random" arrivalLane="current"/>
    <flow id="H0W1" from="h0" to="w1" type="p" begin="1" end="3600" number="25" departPos="last" departLane="best" departSpeed="3.9" arrivalPos="random" arrivalLane="current"/>
    <flow id="H0X1" from="h0" to="x1" type="p" begin="1" end="3600" number="25" departPos="last" departLane="best" departSpeed="3.9" arrivalPos="random" arrivalLane="current"/>
    <flow id="L0A0" from="l0" to="a0" type="p" begin="1" end="3600" number="25" departPos="last" departLane="best" departSpeed="3.9" arrivalPos="random" arrivalLane="current"/>
    <flow id="L0E0" from="l0" to="e0" type="p" begin="1" end="3600" number="25" departPos="last" departLane="best" departSpeed="3.9" arrivalPos="random" arrivalLane="current"/>
    <flow id="L0I0" from="l0" to="i0" type="p4" begin="1" end="3600" number="1000" departPos="last" departLane="best" departSpeed="3.9" arrivalPos="random" arrivalLane="current"/>
    <flow id="L0D1" from="l0" to="d1" type="p" begin="1" end="3600" number="25" departPos="last" departLane="best" departSpeed="3.9" arrivalPos="random" arrivalLane="current"/>
    <flow id="L0H1" from="l0" to="h1" type="p" begin="1" end="3600" number="25" departPos="last" departLane="best" departSpeed="3.9" arrivalPos="random" arrivalLane="current"/>
    <flow id="L0M0" from="l0" to="m0" type="p" begin="1" end="3600" number="25" departPos="last" departLane="best" departSpeed="3.9" arrivalPos="random" arrivalLane="current"/>
    <flow id="L0N0" from="l0" to="n0" type="p" begin="1" end="3600" number="25" departPos="last" departLane="best" departSpeed="3.9" arrivalPos="random" arrivalLane="current"/>
    <flow id="L0O0" from="l0" to="o0" type="p" begin="1" end="3600" number="25" departPos="last" departLane="best" departSpeed="3.9" arrivalPos="random" arrivalLane="current"/>
    <flow id="L0V1" from="l0" to="v1" type="p" begin="1" end="3600" number="25" departPos="last" departLane="best" departSpeed="3.9" arrivalPos="random" arrivalLane="current"/>
    <flow id="L0W1" from="l0" to="w1" type="p" begin="1" end="3600" number="25" departPos="last" departLane="best" departSpeed="3.9" arrivalPos="random" arrivalLane="current"/>
    <flow id="L0X1" from="l0" to="x1" type="p" begin="1" end="3600" number="25" departPos="last" departLane="best" departSpeed="3.9" arrivalPos="random" arrivalLane="current"/>
    <flow id="M1A0" from="m1" to="a0" type="p" begin="1" end="3600" number="25" departPos="last" departLane="best" departSpeed="3.9" arrivalPos="random" arrivalLane="current"/>
    <flow id="M1E0" from="m1" to="e0" type="p" begin="1" end="3600" number="25" departPos="last" departLane="best" departSpeed="3.9" arrivalPos="random" arrivalLane="current"/>
    <flow id="M1I0" from="m1" to="i0" type="p" begin="1" end="3600" number="25" departPos="last" departLane="best" departSpeed="3.9" arrivalPos="random" arrivalLane="current"/>
    <flow id="M1D1" from="m1" to="d1" type="p" begin="1" end="3600" number="25" departPos="last" departLane="best" departSpeed="3.9" arrivalPos="random" arrivalLane="current"/>
    <flow id="M1H1" from="m1" to="h1" type="p" begin="1" end="3600" number="25" departPos="last" departLane="best" departSpeed="3.9" arrivalPos="random" arrivalLane="current"/>
    <flow id="M1L1" from="m1" to="l1" type="p" begin="1" end="3600" number="25" departPos="last" departLane="best" departSpeed="3.9" arrivalPos="random" arrivalLane="current"/>
    <flow id="M1N0" from="m1" to="n0" type="p" begin="1" end="3600" number="25" departPos="last" departLane="best" departSpeed="3.9" arrivalPos="random" arrivalLane="current"/>
    <flow id="M1O0" from="m1" to="o0" type="p" begin="1" end="3600" number="25" departPos="last" departLane="best" departSpeed="3.9" arrivalPos="random" arrivalLane="current"/>
    <flow id="M1V1" from="m1" to="v1" type="p" begin="1" end="3600" number="25" departPos="last" departLane="best" departSpeed="3.9" arrivalPos="random" arrivalLane="current"/>
    <flow id="M1W1" from="m1" to="w1" type="p" begin="1" end="3600" number="25" departPos="last" departLane="best" departSpeed="3.9" arrivalPos="random" arrivalLane="current"/>
    <flow id="M1X1" from="m1" to="x1" type="p" begin="1" end="3600" number="25" departPos="last" departLane="best" departSpeed="3.9" arrivalPos="random" arrivalLane="current"/>
    <flow id="N1A0" from="n1" to="a0" type="p" begin="1" end="3600" number="25" departPos="last" departLane="best" departSpeed="3.9" arrivalPos="random" arrivalLane="current"/>
    <flow id="N1E0" from="n1" to="e0" type="p" begin="1" end="3600" number="25" departPos="last" departLane="best" departSpeed="3.9" arrivalPos="random" arrivalLane="current"/>
    <flow id="N1I0" from="n1" to="i0" type="p" begin="1" end="3600" number="25" departPos="last" departLane="best" departSpeed="3.9" arrivalPos="random" arrivalLane="current"/>
    <flow id="N1D1" from="n1" to="d1" type="p" begin="1" end="3600" number="25" departPos="last" departLane="best" departSpeed="3.9" arrivalPos="random" arrivalLane="current"/>
    <flow id="N1H1" from="n1" to="h1" type="p" begin="1" end="3600" number="25" departPos="last" departLane="best" departSpeed="3.9" arrivalPos="random" arrivalLane="current"/>
    <flow id="N1L1" from="n1" to="l1" type="p" begin="1" end="3600" number="25" departPos="last" departLane="best" departSpeed="3.9" arrivalPos="random" arrivalLane="current"/>
    <flow id="N1M0" from="n1" to="m0" type="p" begin="1" end="3600" number="25" departPos="last" departLane="best" departSpeed="3.9" arrivalPos="random" arrivalLane="current"/>
    <flow id="N1O0" from="n1" to="o0" type="p" begin="1" end="3600" number="25" departPos="last" departLane="best" departSpeed="3.9" arrivalPos="random" arrivalLane="current"/>
    <flow id="N1V1" from="n1" to="v1" type="p" begin="1" end="3600" number="25" departPos="last" departLane="best" departSpeed="3.9" arrivalPos="random" arrivalLane="current"/>
    <flow id="N1W1" from="n1" to="w1" type="p" begin="1" end="3600" number="25" departPos="last" departLane="best" departSpeed="3.9" arrivalPos="random" arrivalLane="current"/>
    <flow id="N1X1" from="n1" to="x1" type="p" begin="1" end="3600" number="25" departPos="last" departLane="best" departSpeed="3.9" arrivalPos="random" arrivalLane="current"/>
    <flow id="O1A0" from="o1" to="a0" type="p" begin="1" end="3600" number="25" departPos="last" departLane="best" departSpeed="3.9" arrivalPos="random" arrivalLane="current"/>
    <flow id="O1E0" from="o1" to="e0" type="p" begin="1" end="3600" number="25" departPos="last" departLane="best" departSpeed="3.9" arrivalPos="random" arrivalLane="current"/>
    <flow id="O1I0" from="o1" to="i0" type="p" begin="1" end="3600" number="25" departPos="last" departLane="best" departSpeed="3.9" arrivalPos="random" arrivalLane="current"/>
    <flow id="O1D1" from="o1" to="d1" type="p" begin="1" end="3600" number="25" departPos="last" departLane="best" departSpeed="3.9" arrivalPos="random" arrivalLane="current"/>
    <flow id="O1H1" from="o1" to="h1" type="p" begin="1" end="3600" number="25" departPos="last" departLane="best" departSpeed="3.9" arrivalPos="random" arrivalLane="current"/>
    <flow id="O1L1" from="o1" to="l1" type="p" begin="1" end="3600" number="25" departPos="last" departLane="best" departSpeed="3.9" arrivalPos="random" arrivalLane="current"/>
    <flow id="O1M0" from="o1" to="m0" type="p" begin="1" end="3600" number="25" departPos="last" departLane="best" departSpeed="3.9" arrivalPos="random" arrivalLane="current"/>
    <flow id="O1N0" from="o1" to="n0" type="p" begin="1" end="3600" number="25" departPos="last" departLane="best" departSpeed="3.9" arrivalPos="random" arrivalLane="current"/>
    <flow id="O1V1" from="o1" to="v1" type="p" begin="1" end="3600" number="25" departPos="last" departLane="best" departSpeed="3.9" arrivalPos="random" arrivalLane="current"/>
    <flow id="O1W1" from="o1" to="w1" type="p" begin="1" end="3600" number="25" departPos="last" departLane="best" departSpeed="3.9" arrivalPos="random" arrivalLane="current"/>
    <flow id="O1X1" from="o1" to="x1" type="p" begin="1" end="3600" number="25" departPos="last" departLane="best" departSpeed="3.9" arrivalPos="random" arrivalLane="current"/>
    <flow id="V0A0" from="v0" to="a0" type="p" begin="1" end="3600" number="25" departPos="last" departLane="best" departSpeed="3.9" arrivalPos="random" arrivalLane="current"/>
    <flow id="V0E0" from="v0" to="e0" type="p" begin="1" end="3600" number="25" departPos="last" departLane="best" departSpeed="3.9" arrivalPos="random" arrivalLane="current"/>
    <flow id="V0I0" from="v0" to="i0" type="p" begin="1" end="3600" number="25" departPos="last" departLane="best" departSpeed="3.9" arrivalPos="random" arrivalLane="current"/>
    <flow id="V0D1" from="v0" to="d1" type="p" begin="1" end="3600" number="25" departPos="last" departLane="best" departSpeed="3.9" arrivalPos="random" arrivalLane="current"/>
    <flow id="V0H1" from="v0" to="h1" type="p" begin="1" end="3600" number="25" departPos="last" departLane="best" departSpeed="3.9" arrivalPos="random" arrivalLane="current"/>
    <flow id="V0L1" from="v0" to="l1" type="p" begin="1" end="3600" number="25" departPos="last" departLane="best" departSpeed="3.9" arrivalPos="random" arrivalLane="current"/>
    <flow id="V0M0" from="v0" to="m0" type="p" begin="1" end="3600" number="25" departPos="last" departLane="best" departSpeed="3.9" arrivalPos="random" arrivalLane="current"/>
    <flow id="V0N0" from="v0" to="n0" type="p" begin="1" end="3600" number="25" departPos="last" departLane="best" departSpeed="3.9" arrivalPos="random" arrivalLane="current"/>
    <flow id="V0O0" from="v0" to="o0" type="p" begin="1" end="3600" number="25" departPos="last" departLane="best" departSpeed="3.9" arrivalPos="random" arrivalLane="current"/>
    <flow id="V0W1" from="v0" to="w1" type="p" begin="1" end="3600" number="25" departPos="last" departLane="best" departSpeed="3.9" arrivalPos="random" arrivalLane="current"/>
    <flow id="V0X1" from="v0" to="x1" type="p" begin="1" end="3600" number="25" departPos="last" departLane="best" departSpeed="3.9" arrivalPos="random" arrivalLane="current"/>
    <flow id="W0A0" from="w0" to="a0" type="p" begin="1" end="3600" number="25" departPos="last" departLane="best" departSpeed="3.9" arrivalPos="random" arrivalLane="current"/>
    <flow id="W0E0" from="w0" to="e0" type="p" begin="1" end="3600" number="25" departPos="last" departLane="best" departSpeed="3.9" arrivalPos="random" arrivalLane="current"/>
    <flow id="W0I0" from="w0" to="i0" type="p" begin="1" end="3600" number="25" departPos="last" departLane="best" departSpeed="3.9" arrivalPos="random" arrivalLane="current"/>
    <flow id="W0D1" from="w0" to="d1" type="p" begin="1" end="3600" number="25" departPos="last" departLane="best" departSpeed="3.9" arrivalPos="random" arrivalLane="current"/>
    <flow id="W0H1" from="w0" to="h1" type="p" begin="1" end="3600" number="25" departPos="last" departLane="best" departSpeed="3.9" arrivalPos="random" arrivalLane="current"/>
    <flow id="W0L1" from="w0" to="l1" type="p" begin="1" end="3600" number="25" departPos="last" departLane="best" departSpeed="3.9" arrivalPos="random" arrivalLane="current"/>
    <flow id="W0M0" from="w0" to="m0" type="p" begin="1" end="3600" number="25" departPos="last" departLane="best" departSpeed="3.9" arrivalPos="random" arrivalLane="current"/>
    <flow id="W0N0" from="w0" to="n0" type="p" begin="1" end="3600" number="25" departPos="last" departLane="best" departSpeed="3.9" arrivalPos="random" arrivalLane="current"/>
    <flow id="W0O0" from="w0" to="o0" type="p" begin="1" end="3600" number="25" departPos="last" departLane="best" departSpeed="3.9" arrivalPos="random" arrivalLane="current"/>
    <flow id="W0V1" from="w0" to="v1" type="p" begin="1" end="3600" number="25" departPos="last" departLane="best" departSpeed="3.9" arrivalPos="random" arrivalLane="current"/>
    <flow id="W0X1" from="w0" to="x1" type="p" begin="1" end="3600" number="25" departPos="last" departLane="best" departSpeed="3.9" arrivalPos="random" arrivalLane="current"/>
    <flow id="X0A0" from="x0" to="a0" type="p" begin="1" end="3600" number="25" departPos="last" departLane="best" departSpeed="3.9" arrivalPos="random" arrivalLane="current"/>
    <flow id="X0E0" from="x0" to="e0" type="p" begin="1" end="3600" number="25" departPos="last" departLane="best" departSpeed="3.9" arrivalPos="random" arrivalLane="current"/>
    <flow id="X0I0" from="x0" to="i0" type="p" begin="1" end="3600" number="25" departPos="last" departLane="best" departSpeed="3.9" arrivalPos="random" arrivalLane="current"/>
    <flow id="X0D1" from="x0" to="d1" type="p" begin="1" end="3600" number="25" departPos="last" departLane="best" departSpeed="3.9" arrivalPos="random" arrivalLane="current"/>
    <flow id="X0H1" from="x0" to="h1" type="p" begin="1" end="3600" number="25" departPos="last" departLane="best" departSpeed="3.9" arrivalPos="random" arrivalLane="current"/>
    <flow id="X0L1" from="x0" to="l1" type="p" begin="1" end="3600" number="25" departPos="last" departLane="best" departSpeed="3.9" arrivalPos="random" arrivalLane="current"/>
    <flow id="X0M0" from="x0" to="m0" type="p" begin="1" end="3600" number="25" departPos="last" departLane="best" departSpeed="3.9" arrivalPos="random" arrivalLane="current"/>
    <flow id="X0N0" from="x0" to="n0" type="p" begin="1" end="3600" number="25" departPos="last" departLane="best" departSpeed="3.9" arrivalPos="random" arrivalLane="current"/>
    <flow id="X0O0" from="x0" to="o0" type="p" begin="1" end="3600" number="25" departPos="last" departLane="best" departSpeed="3.9" arrivalPos="random" arrivalLane="current"/>
    <flow id="X0V1" from="x0" to="v1" type="p" begin="1" end="3600" number="25" departPos="last" departLane="best" departSpeed="3.9" arrivalPos="random" arrivalLane="current"/>
    <flow id="X0W1" from="x0" to="w1" type="p" begin="1" end="3600" number="25" departPos="last" departLane="best" departSpeed="3.9" arrivalPos="random" arrivalLane="current"/>


</routes>
