<?xml version="1.0" encoding="UTF-8"?>

<!-- generated on 02/12/20 14:43:55 by Eclipse SUMO netedit Version 1.4.0
<configuration xmlns:xsi="http://www.w3.org/2001/XMLSchema-instance" xsi:noNamespaceSchemaLocation="http://sumo.dlr.de/xsd/netconvertConfiguration.xsd">

    <input>
        <sumo-net-file value="C:\Users\YingchuW1\Desktop\ITS\GRID\grid.net.xml"/>
    </input>

    <output>
        <output-file value="C:\Users\YingchuW1\Desktop\ITS\GRID\grid.net.xml"/>
    </output>

    <processing>
        <geometry.min-radius.fix.railways value="false"/>
        <geometry.max-grade.fix value="false"/>
        <offset.disable-normalization value="true"/>
        <lefthand value="true"/>
    </processing>

    <junctions>
        <no-turnarounds value="true"/>
        <junctions.corner-detail value="5"/>
        <junctions.limit-turn-speed value="5.5"/>
        <rectangular-lane-cut value="false"/>
    </junctions>

    <pedestrian>
        <walkingareas value="false"/>
    </pedestrian>

    <report>
        <aggregate-warnings value="5"/>
    </report>

</configuration>
-->

<net version="1.3" junctionCornerDetail="5" lefthand="true" limitTurnSpeed="5.50" xmlns:xsi="http://www.w3.org/2001/XMLSchema-instance" xsi:noNamespaceSchemaLocation="http://sumo.dlr.de/xsd/net_file.xsd">

    <location netOffset="0.00,0.00" convBoundary="-100.00,-200.00,700.00,200.00" origBoundary="-10000000000.00,-10000000000.00,10000000000.00,10000000000.00" projParameter="!"/>

    <edge id=":jj1_0" function="internal">
        <lane id=":jj1_0_0" index="0" speed="6.51" length="9.03" shape="98.40,92.80 98.05,95.25 97.00,97.00 95.25,98.05 92.80,98.40"/>
    </edge>
    <edge id=":jj1_1" function="internal">
        <lane id=":jj1_1_0" index="0" speed="13.89" length="14.40" shape="98.40,92.80 98.40,107.20"/>
    </edge>
    <edge id=":jj1_2" function="internal">
        <lane id=":jj1_2_0" index="0" speed="8.00" length="14.19" shape="98.40,92.80 98.95,96.65 100.60,99.40 103.35,101.05 107.20,101.60"/>
    </edge>
    <edge id=":jj1_3" function="internal">
        <lane id=":jj1_3_0" index="0" speed="6.51" length="9.03" shape="107.20,98.40 104.75,98.05 103.00,97.00 101.95,95.25 101.60,92.80"/>
    </edge>
    <edge id=":jj1_4" function="internal">
        <lane id=":jj1_4_0" index="0" speed="13.89" length="14.40" shape="107.20,98.40 92.80,98.40"/>
    </edge>
    <edge id=":jj1_5" function="internal">
        <lane id=":jj1_5_0" index="0" speed="8.00" length="14.19" shape="107.20,98.40 103.35,98.95 100.60,100.60 98.95,103.35 98.40,107.20"/>
    </edge>
    <edge id=":jj1_6" function="internal">
        <lane id=":jj1_6_0" index="0" speed="6.51" length="9.03" shape="101.60,107.20 101.95,104.75 103.00,103.00 104.75,101.95 107.20,101.60"/>
    </edge>
    <edge id=":jj1_7" function="internal">
        <lane id=":jj1_7_0" index="0" speed="13.89" length="14.40" shape="101.60,107.20 101.60,92.80"/>
    </edge>
    <edge id=":jj1_8" function="internal">
        <lane id=":jj1_8_0" index="0" speed="8.00" length="14.19" shape="101.60,107.20 101.05,103.35 99.40,100.60 96.65,98.95 92.80,98.40"/>
    </edge>
    <edge id=":jj1_9" function="internal">
        <lane id=":jj1_9_0" index="0" speed="6.51" length="9.03" shape="92.80,101.60 95.25,101.95 97.00,103.00 98.05,104.75 98.40,107.20"/>
    </edge>
    <edge id=":jj1_10" function="internal">
        <lane id=":jj1_10_0" index="0" speed="13.89" length="14.40" shape="92.80,101.60 107.20,101.60"/>
    </edge>
    <edge id=":jj1_11" function="internal">
        <lane id=":jj1_11_0" index="0" speed="8.00" length="14.19" shape="92.80,101.60 96.65,101.05 99.40,99.40 101.05,96.65 101.60,92.80"/>
    </edge>
    <edge id=":jj11_0" function="internal">
        <lane id=":jj11_0_0" index="0" speed="6.51" length="9.03" shape="98.40,-113.60 98.05,-111.15 97.00,-109.40 95.25,-108.35 92.80,-108.00"/>
    </edge>
    <edge id=":jj11_1" function="internal">
        <lane id=":jj11_1_0" index="0" speed="13.89" length="27.20" shape="98.40,-113.60 98.40,-86.40"/>
    </edge>
    <edge id=":jj11_2" function="internal">
        <lane id=":jj11_2_0" index="0" speed="9.32" length="19.63" shape="98.40,-113.60 98.95,-106.95 100.60,-102.20 103.35,-99.35 107.20,-98.40"/>
    </edge>
    <edge id=":jj11_3" function="internal">
        <lane id=":jj11_3_0" index="0" speed="6.51" length="9.03" shape="107.20,-108.00 104.75,-108.35 103.00,-109.40 101.95,-111.15 101.60,-113.60"/>
    </edge>
    <edge id=":jj11_4" function="internal">
        <lane id=":jj11_4_0" index="0" speed="13.89" length="14.40" shape="107.20,-108.00 92.80,-108.00"/>
        <lane id=":jj11_4_1" index="1" speed="13.89" length="14.40" shape="107.20,-104.80 92.80,-104.80"/>
        <lane id=":jj11_4_2" index="2" speed="13.89" length="14.40" shape="107.20,-101.60 92.80,-101.60"/>
    </edge>
    <edge id=":jj11_7" function="internal">
        <lane id=":jj11_7_0" index="0" speed="9.32" length="19.63" shape="107.20,-101.60 103.35,-100.65 100.60,-97.80 98.95,-93.05 98.40,-86.40"/>
    </edge>
    <edge id=":jj11_8" function="internal">
        <lane id=":jj11_8_0" index="0" speed="6.51" length="9.03" shape="101.60,-86.40 101.95,-88.85 103.00,-90.60 104.75,-91.65 107.20,-92.00"/>
    </edge>
    <edge id=":jj11_9" function="internal">
        <lane id=":jj11_9_0" index="0" speed="13.89" length="27.20" shape="101.60,-86.40 101.60,-113.60"/>
    </edge>
    <edge id=":jj11_10" function="internal">
        <lane id=":jj11_10_0" index="0" speed="9.32" length="19.63" shape="101.60,-86.40 101.05,-93.05 99.40,-97.80 96.65,-100.65 92.80,-101.60"/>
    </edge>
    <edge id=":jj11_11" function="internal">
        <lane id=":jj11_11_0" index="0" speed="6.51" length="9.03" shape="92.80,-92.00 95.25,-91.65 97.00,-90.60 98.05,-88.85 98.40,-86.40"/>
    </edge>
    <edge id=":jj11_12" function="internal">
        <lane id=":jj11_12_0" index="0" speed="13.89" length="14.40" shape="92.80,-92.00 107.20,-92.00"/>
        <lane id=":jj11_12_1" index="1" speed="13.89" length="14.40" shape="92.80,-95.20 107.20,-95.20"/>
        <lane id=":jj11_12_2" index="2" speed="13.89" length="14.40" shape="92.80,-98.40 107.20,-98.40"/>
    </edge>
    <edge id=":jj11_15" function="internal">
        <lane id=":jj11_15_0" index="0" speed="9.32" length="19.63" shape="92.80,-98.40 96.65,-99.35 99.40,-102.20 101.05,-106.95 101.60,-113.60"/>
    </edge>
    <edge id=":jj12_0" function="internal">
        <lane id=":jj12_0_0" index="0" speed="6.51" length="9.03" shape="298.40,-113.60 298.05,-111.15 297.00,-109.40 295.25,-108.35 292.80,-108.00"/>
    </edge>
    <edge id=":jj12_1" function="internal">
        <lane id=":jj12_1_0" index="0" speed="13.89" length="27.20" shape="298.40,-113.60 298.40,-86.40"/>
    </edge>
    <edge id=":jj12_2" function="internal">
        <lane id=":jj12_2_0" index="0" speed="13.89" length="43.24" shape="298.40,-113.60 300.24,-106.30 305.75,-98.99 314.93,-91.66 327.79,-84.32"/>
    </edge>
    <edge id=":jj12_3" function="internal">
        <lane id=":jj12_3_0" index="0" speed="12.97" length="38.99" shape="298.40,-113.60 300.40,-106.95 306.39,-102.20 316.37,-99.35 330.36,-98.40"/>
    </edge>
    <edge id=":jj12_4" function="internal">
        <lane id=":jj12_4_0" index="0" speed="11.48" length="30.34" shape="330.36,-108.00 317.77,-108.35 308.79,-109.40 303.40,-111.15 301.60,-113.60"/>
    </edge>
    <edge id=":jj12_5" function="internal">
        <lane id=":jj12_5_0" index="0" speed="13.89" length="37.56" shape="330.36,-108.00 292.80,-108.00"/>
        <lane id=":jj12_5_1" index="1" speed="13.89" length="37.56" shape="330.36,-104.80 292.80,-104.80"/>
        <lane id=":jj12_5_2" index="2" speed="13.89" length="37.56" shape="330.36,-101.60 292.80,-101.60"/>
    </edge>
    <edge id=":jj12_8" function="internal">
        <lane id=":jj12_8_0" index="0" speed="12.97" length="38.99" shape="330.36,-101.60 316.37,-100.65 306.39,-97.80 300.40,-93.05 298.40,-86.40"/>
    </edge>
    <edge id=":jj12_9" function="internal">
        <lane id=":jj12_9_0" index="0" speed="7.67" length="23.89" shape="330.36,-101.60 324.64,-99.51 322.18,-94.59 323.16,-88.85 327.79,-84.32"/>
    </edge>
    <edge id=":jj12_10" function="internal">
        <lane id=":jj12_10_0" index="0" speed="5.60" length="11.85" shape="329.22,-87.18 325.67,-89.29 324.68,-90.80 326.24,-91.70 330.36,-92.00"/>
    </edge>
    <edge id=":jj12_11" function="internal">
        <lane id=":jj12_11_0" index="0" speed="13.89" length="39.74" shape="329.22,-87.18 317.13,-94.01 308.50,-100.69 303.33,-107.22 301.60,-113.60"/>
    </edge>
    <edge id=":jj12_12" function="internal">
        <lane id=":jj12_12_0" index="0" speed="13.89" length="40.97" shape="329.22,-87.18 323.75,-90.88 314.96,-96.83 304.19,-102.36 292.80,-104.80"/>
    </edge>
    <edge id=":jj12_13" function="internal">
        <lane id=":jj12_13_0" index="0" speed="10.93" length="37.07" shape="329.22,-87.18 317.94,-92.19 308.06,-94.72 301.06,-93.29 298.40,-86.40"/>
    </edge>
    <edge id=":jj12_14" function="internal">
        <lane id=":jj12_14_0" index="0" speed="9.92" length="30.28" shape="301.60,-86.40 303.24,-90.40 308.15,-91.39 316.33,-89.36 327.79,-84.32"/>
    </edge>
    <edge id=":jj12_15" function="internal">
        <lane id=":jj12_15_0" index="0" speed="11.79" length="32.03" shape="301.60,-86.40 303.40,-90.25 308.79,-93.00 317.77,-94.65 330.36,-95.20"/>
    </edge>
    <edge id=":jj12_16" function="internal">
        <lane id=":jj12_16_0" index="0" speed="13.89" length="27.20" shape="301.60,-86.40 301.60,-113.60"/>
    </edge>
    <edge id=":jj12_17" function="internal">
        <lane id=":jj12_17_0" index="0" speed="9.32" length="19.63" shape="301.60,-86.40 301.05,-93.05 299.40,-97.80 296.65,-100.65 292.80,-101.60"/>
    </edge>
    <edge id=":jj12_18" function="internal">
        <lane id=":jj12_18_0" index="0" speed="6.51" length="9.03" shape="292.80,-92.00 295.25,-91.65 297.00,-90.60 298.05,-88.85 298.40,-86.40"/>
    </edge>
    <edge id=":jj12_19" function="internal">
        <lane id=":jj12_19_0" index="0" speed="13.89" length="36.04" shape="292.80,-92.00 303.97,-91.11 314.24,-89.00 322.54,-86.46 327.79,-84.32"/>
    </edge>
    <edge id=":jj12_20" function="internal">
        <lane id=":jj12_20_0" index="0" speed="13.89" length="37.56" shape="292.80,-92.00 330.36,-92.00"/>
        <lane id=":jj12_20_1" index="1" speed="13.89" length="37.56" shape="292.80,-95.20 330.36,-95.20"/>
        <lane id=":jj12_20_2" index="2" speed="13.89" length="37.56" shape="292.80,-98.40 330.36,-98.40"/>
    </edge>
    <edge id=":jj12_23" function="internal">
        <lane id=":jj12_23_0" index="0" speed="9.32" length="19.63" shape="292.80,-98.40 296.65,-99.35 299.40,-102.20 301.05,-106.95 301.60,-113.60"/>
    </edge>
    <edge id=":jj13_0" function="internal">
        <lane id=":jj13_0_0" index="0" speed="6.51" length="9.03" shape="498.40,-113.60 498.05,-111.15 497.00,-109.40 495.25,-108.35 492.80,-108.00"/>
    </edge>
    <edge id=":jj13_1" function="internal">
        <lane id=":jj13_1_0" index="0" speed="13.89" length="27.20" shape="498.40,-113.60 498.40,-86.40"/>
    </edge>
    <edge id=":jj13_2" function="internal">
        <lane id=":jj13_2_0" index="0" speed="9.32" length="19.63" shape="498.40,-113.60 498.95,-106.95 500.60,-102.20 503.35,-99.35 507.20,-98.40"/>
    </edge>
    <edge id=":jj13_3" function="internal">
        <lane id=":jj13_3_0" index="0" speed="6.51" length="9.03" shape="507.20,-108.00 504.75,-108.35 503.00,-109.40 501.95,-111.15 501.60,-113.60"/>
    </edge>
    <edge id=":jj13_4" function="internal">
        <lane id=":jj13_4_0" index="0" speed="13.89" length="14.40" shape="507.20,-108.00 492.80,-108.00"/>
        <lane id=":jj13_4_1" index="1" speed="13.89" length="14.40" shape="507.20,-104.80 492.80,-104.80"/>
        <lane id=":jj13_4_2" index="2" speed="13.89" length="14.40" shape="507.20,-101.60 492.80,-101.60"/>
    </edge>
    <edge id=":jj13_7" function="internal">
        <lane id=":jj13_7_0" index="0" speed="9.32" length="19.63" shape="507.20,-101.60 503.35,-100.65 500.60,-97.80 498.95,-93.05 498.40,-86.40"/>
    </edge>
    <edge id=":jj13_8" function="internal">
        <lane id=":jj13_8_0" index="0" speed="6.51" length="9.03" shape="501.60,-86.40 501.95,-88.85 503.00,-90.60 504.75,-91.65 507.20,-92.00"/>
    </edge>
    <edge id=":jj13_9" function="internal">
        <lane id=":jj13_9_0" index="0" speed="13.89" length="27.20" shape="501.60,-86.40 501.60,-113.60"/>
    </edge>
    <edge id=":jj13_10" function="internal">
        <lane id=":jj13_10_0" index="0" speed="9.32" length="19.63" shape="501.60,-86.40 501.05,-93.05 499.40,-97.80 496.65,-100.65 492.80,-101.60"/>
    </edge>
    <edge id=":jj13_11" function="internal">
        <lane id=":jj13_11_0" index="0" speed="6.51" length="9.03" shape="492.80,-92.00 495.25,-91.65 497.00,-90.60 498.05,-88.85 498.40,-86.40"/>
    </edge>
    <edge id=":jj13_12" function="internal">
        <lane id=":jj13_12_0" index="0" speed="13.89" length="14.40" shape="492.80,-92.00 507.20,-92.00"/>
        <lane id=":jj13_12_1" index="1" speed="13.89" length="14.40" shape="492.80,-95.20 507.20,-95.20"/>
        <lane id=":jj13_12_2" index="2" speed="13.89" length="14.40" shape="492.80,-98.40 507.20,-98.40"/>
    </edge>
    <edge id=":jj13_15" function="internal">
        <lane id=":jj13_15_0" index="0" speed="9.32" length="19.63" shape="492.80,-98.40 496.65,-99.35 499.40,-102.20 501.05,-106.95 501.60,-113.60"/>
    </edge>
    <edge id=":jj2_0" function="internal">
        <lane id=":jj2_0_0" index="0" speed="7.02" length="10.67" shape="298.40,90.82 298.05,94.14 297.00,96.51 295.25,97.93 292.80,98.40"/>
    </edge>
    <edge id=":jj2_1" function="internal">
        <lane id=":jj2_1_0" index="0" speed="13.89" length="16.38" shape="298.40,90.82 298.40,107.20"/>
    </edge>
    <edge id=":jj2_2" function="internal">
        <lane id=":jj2_2_0" index="0" speed="10.36" length="24.51" shape="298.40,90.82 299.60,95.54 303.19,98.91 309.17,100.93 317.56,101.60"/>
    </edge>
    <edge id=":jj2_3" function="internal">
        <lane id=":jj2_3_0" index="0" speed="8.68" length="22.89" shape="298.40,90.82 299.94,96.03 304.01,97.58 309.78,96.44 316.42,93.58"/>
    </edge>
    <edge id=":jj2_4" function="internal">
        <lane id=":jj2_4_0" index="0" speed="7.33" length="15.88" shape="314.99,90.72 309.13,93.23 304.95,94.09 302.44,93.29 301.60,90.82"/>
    </edge>
    <edge id=":jj2_5" function="internal">
        <lane id=":jj2_5_0" index="0" speed="13.89" length="23.57" shape="314.99,90.72 310.34,92.86 304.09,95.40 297.75,97.51 292.80,98.40"/>
    </edge>
    <edge id=":jj2_6" function="internal">
        <lane id=":jj2_6_0" index="0" speed="12.76" length="24.37" shape="314.99,90.72 307.73,94.86 302.55,98.99 299.44,103.10 298.40,107.20"/>
    </edge>
    <edge id=":jj2_7" function="internal">
        <lane id=":jj2_7_0" index="0" speed="6.26" length="15.29" shape="314.99,90.72 312.17,93.59 311.86,97.20 313.75,100.29 317.56,101.60"/>
    </edge>
    <edge id=":jj2_8" function="internal">
        <lane id=":jj2_8_0" index="0" speed="5.60" length="11.85" shape="317.56,98.40 313.44,98.10 311.88,97.20 312.87,95.69 316.42,93.58"/>
    </edge>
    <edge id=":jj2_9" function="internal">
        <lane id=":jj2_9_0" index="0" speed="9.28" length="19.46" shape="317.56,98.40 310.57,97.93 305.59,96.51 302.60,94.14 301.60,90.82"/>
    </edge>
    <edge id=":jj2_10" function="internal">
        <lane id=":jj2_10_0" index="0" speed="13.89" length="24.76" shape="317.56,98.40 292.80,98.40"/>
    </edge>
    <edge id=":jj2_11" function="internal">
        <lane id=":jj2_11_0" index="0" speed="9.85" length="22.06" shape="317.56,98.40 311.60,99.16 305.34,101.15 300.40,103.97 298.40,107.20"/>
    </edge>
    <edge id=":jj2_12" function="internal">
        <lane id=":jj2_12_0" index="0" speed="8.99" length="18.20" shape="301.60,107.20 302.60,104.75 305.59,103.00 310.57,101.95 317.56,101.60"/>
    </edge>
    <edge id=":jj2_13" function="internal">
        <lane id=":jj2_13_0" index="0" speed="11.84" length="20.87" shape="301.60,107.20 302.53,104.02 305.30,100.69 309.93,97.21 316.42,93.58"/>
    </edge>
    <edge id=":jj2_14" function="internal">
        <lane id=":jj2_14_0" index="0" speed="13.89" length="16.38" shape="301.60,107.20 301.60,90.82"/>
    </edge>
    <edge id=":jj2_15" function="internal">
        <lane id=":jj2_15_0" index="0" speed="8.00" length="14.19" shape="301.60,107.20 301.05,103.35 299.40,100.60 296.65,98.95 292.80,98.40"/>
    </edge>
    <edge id=":jj2_16" function="internal">
        <lane id=":jj2_16_0" index="0" speed="6.51" length="9.03" shape="292.80,101.60 295.25,101.95 297.00,103.00 298.05,104.75 298.40,107.20"/>
    </edge>
    <edge id=":jj2_17" function="internal">
        <lane id=":jj2_17_0" index="0" speed="13.89" length="24.76" shape="292.80,101.60 317.56,101.60"/>
    </edge>
    <edge id=":jj2_18" function="internal">
        <lane id=":jj2_18_0" index="0" speed="13.89" length="25.03" shape="292.80,101.60 297.97,100.66 304.81,98.43 311.54,95.78 316.42,93.58"/>
    </edge>
    <edge id=":jj2_19" function="internal">
        <lane id=":jj2_19_0" index="0" speed="8.42" length="15.82" shape="292.80,101.60 296.65,100.93 299.40,98.91 301.05,95.54 301.60,90.82"/>
    </edge>
    <edge id=":jj3_0" function="internal">
        <lane id=":jj3_0_0" index="0" speed="6.51" length="9.03" shape="498.40,92.80 498.05,95.25 497.00,97.00 495.25,98.05 492.80,98.40"/>
    </edge>
    <edge id=":jj3_1" function="internal">
        <lane id=":jj3_1_0" index="0" speed="13.89" length="14.40" shape="498.40,92.80 498.40,107.20"/>
    </edge>
    <edge id=":jj3_2" function="internal">
        <lane id=":jj3_2_0" index="0" speed="8.00" length="14.19" shape="498.40,92.80 498.95,96.65 500.60,99.40 503.35,101.05 507.20,101.60"/>
    </edge>
    <edge id=":jj3_3" function="internal">
        <lane id=":jj3_3_0" index="0" speed="6.51" length="9.03" shape="507.20,98.40 504.75,98.05 503.00,97.00 501.95,95.25 501.60,92.80"/>
    </edge>
    <edge id=":jj3_4" function="internal">
        <lane id=":jj3_4_0" index="0" speed="13.89" length="14.40" shape="507.20,98.40 492.80,98.40"/>
    </edge>
    <edge id=":jj3_5" function="internal">
        <lane id=":jj3_5_0" index="0" speed="8.00" length="14.19" shape="507.20,98.40 503.35,98.95 500.60,100.60 498.95,103.35 498.40,107.20"/>
    </edge>
    <edge id=":jj3_6" function="internal">
        <lane id=":jj3_6_0" index="0" speed="6.51" length="9.03" shape="501.60,107.20 501.95,104.75 503.00,103.00 504.75,101.95 507.20,101.60"/>
    </edge>
    <edge id=":jj3_7" function="internal">
        <lane id=":jj3_7_0" index="0" speed="13.89" length="14.40" shape="501.60,107.20 501.60,92.80"/>
    </edge>
    <edge id=":jj3_8" function="internal">
        <lane id=":jj3_8_0" index="0" speed="8.00" length="14.19" shape="501.60,107.20 501.05,103.35 499.40,100.60 496.65,98.95 492.80,98.40"/>
    </edge>
    <edge id=":jj3_9" function="internal">
        <lane id=":jj3_9_0" index="0" speed="6.51" length="9.03" shape="492.80,101.60 495.25,101.95 497.00,103.00 498.05,104.75 498.40,107.20"/>
    </edge>
    <edge id=":jj3_10" function="internal">
        <lane id=":jj3_10_0" index="0" speed="13.89" length="14.40" shape="492.80,101.60 507.20,101.60"/>
    </edge>
    <edge id=":jj3_11" function="internal">
        <lane id=":jj3_11_0" index="0" speed="8.00" length="14.19" shape="492.80,101.60 496.65,101.05 499.40,99.40 501.05,96.65 501.60,92.80"/>
    </edge>
    <edge id=":jj6_0" function="internal">
        <lane id=":jj6_0_0" index="0" speed="6.51" length="9.03" shape="98.40,-10.40 98.05,-7.95 97.00,-6.20 95.25,-5.15 92.80,-4.80"/>
    </edge>
    <edge id=":jj6_1" function="internal">
        <lane id=":jj6_1_0" index="0" speed="13.89" length="20.80" shape="98.40,-10.40 98.40,10.40"/>
    </edge>
    <edge id=":jj6_2" function="internal">
        <lane id=":jj6_2_0" index="0" speed="8.67" length="16.85" shape="98.40,-10.40 98.95,-5.15 100.60,-1.40 103.35,0.85 107.20,1.60"/>
    </edge>
    <edge id=":jj6_3" function="internal">
        <lane id=":jj6_3_0" index="0" speed="6.51" length="9.03" shape="107.20,-4.80 104.75,-5.15 103.00,-6.20 101.95,-7.95 101.60,-10.40"/>
    </edge>
    <edge id=":jj6_4" function="internal">
        <lane id=":jj6_4_0" index="0" speed="13.89" length="14.40" shape="107.20,-4.80 92.80,-4.80"/>
        <lane id=":jj6_4_1" index="1" speed="13.89" length="14.40" shape="107.20,-1.60 92.80,-1.60"/>
    </edge>
    <edge id=":jj6_6" function="internal">
        <lane id=":jj6_6_0" index="0" speed="8.67" length="16.85" shape="107.20,-1.60 103.35,-0.85 100.60,1.40 98.95,5.15 98.40,10.40"/>
    </edge>
    <edge id=":jj6_7" function="internal">
        <lane id=":jj6_7_0" index="0" speed="6.51" length="9.03" shape="101.60,10.40 101.95,7.95 103.00,6.20 104.75,5.15 107.20,4.80"/>
    </edge>
    <edge id=":jj6_8" function="internal">
        <lane id=":jj6_8_0" index="0" speed="13.89" length="20.80" shape="101.60,10.40 101.60,-10.40"/>
    </edge>
    <edge id=":jj6_9" function="internal">
        <lane id=":jj6_9_0" index="0" speed="8.67" length="16.85" shape="101.60,10.40 101.05,5.15 99.40,1.40 96.65,-0.85 92.80,-1.60"/>
    </edge>
    <edge id=":jj6_10" function="internal">
        <lane id=":jj6_10_0" index="0" speed="6.51" length="9.03" shape="92.80,4.80 95.25,5.15 97.00,6.20 98.05,7.95 98.40,10.40"/>
    </edge>
    <edge id=":jj6_11" function="internal">
        <lane id=":jj6_11_0" index="0" speed="13.89" length="14.40" shape="92.80,4.80 107.20,4.80"/>
        <lane id=":jj6_11_1" index="1" speed="13.89" length="14.40" shape="92.80,1.60 107.20,1.60"/>
    </edge>
    <edge id=":jj6_13" function="internal">
        <lane id=":jj6_13_0" index="0" speed="8.67" length="16.85" shape="92.80,1.60 96.65,0.85 99.40,-1.40 101.05,-5.15 101.60,-10.40"/>
    </edge>
    <edge id=":jj7_0" function="internal">
        <lane id=":jj7_0_0" index="0" speed="6.51" length="9.03" shape="298.40,-10.40 298.05,-7.95 297.00,-6.20 295.25,-5.15 292.80,-4.80"/>
    </edge>
    <edge id=":jj7_1" function="internal">
        <lane id=":jj7_1_0" index="0" speed="13.89" length="20.80" shape="298.40,-10.40 298.40,10.40"/>
    </edge>
    <edge id=":jj7_2" function="internal">
        <lane id=":jj7_2_0" index="0" speed="8.67" length="16.85" shape="298.40,-10.40 298.95,-5.15 300.60,-1.40 303.35,0.85 307.20,1.60"/>
    </edge>
    <edge id=":jj7_3" function="internal">
        <lane id=":jj7_3_0" index="0" speed="6.51" length="9.03" shape="307.20,-4.80 304.75,-5.15 303.00,-6.20 301.95,-7.95 301.60,-10.40"/>
    </edge>
    <edge id=":jj7_4" function="internal">
        <lane id=":jj7_4_0" index="0" speed="13.89" length="14.40" shape="307.20,-4.80 292.80,-4.80"/>
        <lane id=":jj7_4_1" index="1" speed="13.89" length="14.40" shape="307.20,-1.60 292.80,-1.60"/>
    </edge>
    <edge id=":jj7_6" function="internal">
        <lane id=":jj7_6_0" index="0" speed="8.67" length="16.85" shape="307.20,-1.60 303.35,-0.85 300.60,1.40 298.95,5.15 298.40,10.40"/>
    </edge>
    <edge id=":jj7_7" function="internal">
        <lane id=":jj7_7_0" index="0" speed="6.51" length="9.03" shape="301.60,10.40 301.95,7.95 303.00,6.20 304.75,5.15 307.20,4.80"/>
    </edge>
    <edge id=":jj7_8" function="internal">
        <lane id=":jj7_8_0" index="0" speed="13.89" length="20.80" shape="301.60,10.40 301.60,-10.40"/>
    </edge>
    <edge id=":jj7_9" function="internal">
        <lane id=":jj7_9_0" index="0" speed="8.67" length="16.85" shape="301.60,10.40 301.05,5.15 299.40,1.40 296.65,-0.85 292.80,-1.60"/>
    </edge>
    <edge id=":jj7_10" function="internal">
        <lane id=":jj7_10_0" index="0" speed="6.51" length="9.03" shape="292.80,4.80 295.25,5.15 297.00,6.20 298.05,7.95 298.40,10.40"/>
    </edge>
    <edge id=":jj7_11" function="internal">
        <lane id=":jj7_11_0" index="0" speed="13.89" length="14.40" shape="292.80,4.80 307.20,4.80"/>
        <lane id=":jj7_11_1" index="1" speed="13.89" length="14.40" shape="292.80,1.60 307.20,1.60"/>
    </edge>
    <edge id=":jj7_13" function="internal">
        <lane id=":jj7_13_0" index="0" speed="8.67" length="16.85" shape="292.80,1.60 296.65,0.85 299.40,-1.40 301.05,-5.15 301.60,-10.40"/>
    </edge>
    <edge id=":jj8_0" function="internal">
        <lane id=":jj8_0_0" index="0" speed="8.65" length="22.68" shape="498.40,-10.40 497.16,-7.60 493.45,-7.01 487.27,-8.64 478.61,-12.48"/>
    </edge>
    <edge id=":jj8_1" function="internal">
        <lane id=":jj8_1_0" index="0" speed="10.30" length="24.21" shape="498.40,-10.40 497.00,-7.95 492.81,-6.20 485.83,-5.15 476.04,-4.80"/>
    </edge>
    <edge id=":jj8_2" function="internal">
        <lane id=":jj8_2_0" index="0" speed="13.89" length="30.30" shape="498.40,-10.40 497.07,-5.62 493.10,-0.69 486.47,4.39 477.18,9.62"/>
    </edge>
    <edge id=":jj8_3" function="internal">
        <lane id=":jj8_3_0" index="0" speed="13.89" length="20.80" shape="498.40,-10.40 498.40,10.40"/>
    </edge>
    <edge id=":jj8_4" function="internal">
        <lane id=":jj8_4_0" index="0" speed="8.67" length="16.85" shape="498.40,-10.40 498.95,-5.15 500.60,-1.40 503.35,0.85 507.20,1.60"/>
    </edge>
    <edge id=":jj8_5" function="internal">
        <lane id=":jj8_5_0" index="0" speed="6.51" length="9.03" shape="507.20,-4.80 504.75,-5.15 503.00,-6.20 501.95,-7.95 501.60,-10.40"/>
    </edge>
    <edge id=":jj8_6" function="internal">
        <lane id=":jj8_6_0" index="0" speed="13.89" length="29.77" shape="507.20,-4.80 499.14,-5.69 490.83,-7.80 483.56,-10.34 478.61,-12.48"/>
    </edge>
    <edge id=":jj8_7" function="internal">
        <lane id=":jj8_7_0" index="0" speed="13.89" length="31.16" shape="507.20,-4.80 476.04,-4.80"/>
        <lane id=":jj8_7_1" index="1" speed="13.89" length="31.16" shape="507.20,-1.60 476.04,-1.60"/>
    </edge>
    <edge id=":jj8_9" function="internal">
        <lane id=":jj8_9_0" index="0" speed="13.89" length="32.27" shape="507.20,-1.60 498.92,-0.16 490.12,3.17 482.35,6.92 477.18,9.62"/>
    </edge>
    <edge id=":jj8_10" function="internal">
        <lane id=":jj8_10_0" index="0" speed="8.67" length="16.85" shape="507.20,-1.60 503.35,-0.85 500.60,1.40 498.95,5.15 498.40,10.40"/>
    </edge>
    <edge id=":jj8_11" function="internal">
        <lane id=":jj8_11_0" index="0" speed="6.51" length="9.03" shape="501.60,10.40 501.95,7.95 503.00,6.20 504.75,5.15 507.20,4.80"/>
    </edge>
    <edge id=":jj8_12" function="internal">
        <lane id=":jj8_12_0" index="0" speed="13.89" length="20.80" shape="501.60,10.40 501.60,-10.40"/>
    </edge>
    <edge id=":jj8_13" function="internal">
        <lane id=":jj8_13_0" index="0" speed="13.89" length="33.80" shape="501.60,10.40 500.16,4.70 495.85,-1.01 488.67,-6.74 478.61,-12.48"/>
    </edge>
    <edge id=":jj8_14" function="internal">
        <lane id=":jj8_14_0" index="0" speed="11.62" length="31.07" shape="501.60,10.40 500.00,5.15 495.21,1.40 487.23,-0.85 476.04,-1.60"/>
    </edge>
    <edge id=":jj8_15" function="internal">
        <lane id=":jj8_15_0" index="0" speed="9.79" length="29.45" shape="501.60,10.40 499.49,4.86 493.94,3.67 486.12,5.66 477.18,9.62"/>
    </edge>
    <edge id=":jj8_16" function="internal">
        <lane id=":jj8_16_0" index="0" speed="8.65" length="22.68" shape="478.61,12.48 487.27,8.64 493.45,7.01 497.16,7.60 498.40,10.40"/>
    </edge>
    <edge id=":jj8_17" function="internal">
        <lane id=":jj8_17_0" index="0" speed="13.89" length="29.77" shape="478.61,12.48 483.56,10.34 490.83,7.80 499.14,5.69 507.20,4.80"/>
    </edge>
    <edge id=":jj8_18" function="internal">
        <lane id=":jj8_18_0" index="0" speed="13.89" length="33.80" shape="478.61,12.48 488.67,6.74 495.85,1.01 500.16,-4.70 501.60,-10.40"/>
    </edge>
    <edge id=":jj8_19" function="internal">
        <lane id=":jj8_19_0" index="0" speed="9.78" length="32.39" shape="478.61,12.48 485.59,6.84 487.92,-0.00 485.59,-6.84 478.61,-12.48"/>
    </edge>
    <edge id=":jj8_20" function="internal">
        <lane id=":jj8_20_0" index="0" speed="7.00" length="19.58" shape="478.61,12.48 482.33,8.78 482.98,4.11 480.80,0.10 476.04,-1.60"/>
    </edge>
    <edge id=":jj8_21" function="internal">
        <lane id=":jj8_21_0" index="0" speed="5.60" length="11.85" shape="476.04,4.80 480.16,5.10 481.72,6.00 480.73,7.51 477.18,9.62"/>
    </edge>
    <edge id=":jj8_22" function="internal">
        <lane id=":jj8_22_0" index="0" speed="10.30" length="24.21" shape="476.04,4.80 485.83,5.15 492.81,6.20 497.00,7.95 498.40,10.40"/>
    </edge>
    <edge id=":jj8_23" function="internal">
        <lane id=":jj8_23_0" index="0" speed="13.89" length="31.16" shape="476.04,4.80 507.20,4.80"/>
        <lane id=":jj8_23_1" index="1" speed="13.89" length="31.16" shape="476.04,1.60 507.20,1.60"/>
    </edge>
    <edge id=":jj8_25" function="internal">
        <lane id=":jj8_25_0" index="0" speed="11.62" length="31.07" shape="476.04,1.60 487.23,0.85 495.21,-1.40 500.00,-5.15 501.60,-10.40"/>
    </edge>
    <edge id=":jj8_26" function="internal">
        <lane id=":jj8_26_0" index="0" speed="7.00" length="19.58" shape="476.04,1.60 480.80,-0.10 482.98,-4.11 482.33,-8.78 478.61,-12.48"/>
    </edge>
    <edge id=":jj8_27" function="internal">
        <lane id=":jj8_27_0" index="0" speed="5.60" length="11.85" shape="477.18,-9.62 480.73,-7.51 481.72,-6.00 480.16,-5.10 476.04,-4.80"/>
    </edge>
    <edge id=":jj8_28" function="internal">